*
*
*
*                       LINUX           Mon Apr 26 15:13:31 2021
*
*
*
*  PROGRAM  advgen
*
*  Name           : advgen - Quantus - (64-bit)
*  Version        : 18.2.0-p078
*  Build Date     : Sun Sep 30 08:14:52 PDT 2018
*
*  HSPICE LIBRARY
*
*!LENGTH_UNITS METERS
*
*
*

*
.SUBCKT SRAMCell vdd! gnd! BL BLn Q Qn WL
*
*
*  caps2d version: 10
*
*
*       TRANSISTOR CARDS
*
*
MavD2_1	gnd!#2	Q#3	Qn#7	gnd!#3	nmos1v#20ivpcell#20gpdk045	L=9e-08
+ W=2.4e-07
+ AD=3.36e-14	AS=3.36e-14	PD=7.6e-07	PS=7.6e-07
+ scc=6.72302e-05 scb=0.00529568 sca=6.33694 sb=1.4e-07 sa=1.4e-07
MavD2_2	BLn#1	WL#2	Qn#9	gnd!#3	nmos1v#20ivpcell#20gpdk045	L=9e-08
+ W=1.8e-07
+ AD=2.52e-14	AS=2.52e-14	PD=6.4e-07	PS=6.4e-07
+ scc=0.000164536 scb=0.0110968 sca=11.0865 sb=1.4e-07 sa=1.4e-07
MavD2_3	Q#7	Qn#4	gnd!#1	gnd!#3	nmos1v#20ivpcell#20gpdk045	L=9e-08
+ W=2.4e-07
+ AD=3.36e-14	AS=3.36e-14	PD=7.6e-07	PS=7.6e-07
+ scc=6.72302e-05 scb=0.00529568 sca=6.33694 sb=1.4e-07 sa=1.4e-07
MavD2_4	Q#9	WL#1	BL#1	gnd!#3	nmos1v#20ivpcell#20gpdk045	L=9e-08
+ W=1.8e-07
+ AD=2.52e-14	AS=2.52e-14	PD=6.4e-07	PS=6.4e-07
+ scc=0.000164536 scb=0.0110968 sca=11.0865 sb=1.4e-07 sa=1.4e-07
MavD10_1	vdd!#2	Q#1	Qn#5	vdd!#3	pmos1v#20ivpcell#20gpdk045
+ L=9e-08	W=1.2e-07
+ AD=1.68e-14	AS=1.68e-14	PD=5.2e-07	PS=5.2e-07
+ scc=0.0063131 scb=0.045131 sca=47.7483 sb=1.4e-07 sa=1.4e-07
MavD10_2	Q#10	Qn#1	vdd!#1	vdd!#3	pmos1v#20ivpcell#20gpdk045
+ L=9e-08	W=1.2e-07
+ AD=1.68e-14	AS=1.68e-14	PD=5.2e-07	PS=5.2e-07
+ scc=0.00617886 scb=0.0441359 sca=46.9817 sb=1.4e-07 sa=1.4e-07
*
*
*       RESISTOR AND CAP/DIODE CARDS
*
Rk1	BLn#1	BLn	   75.2522	$X=0.67 $Y=0.145
Rk2	Qn#5	Qn#6	   62.3321	$X=0.42 $Y=1.8525
Rk3	Qn#6	Qn	    0.1588	$X=0.126 $Y=1.625
Rk4	Qn#6	Qn#8	    0.1910	$X=0.42 $Y=1.5775
Rk5	Qn#8	Qn#9	   75.6200	$X=0.42 $Y=0.8
Rk6	Qn#6	Qn#3	    0.4836	$X=0.785 $Y=1.605
Rk7	Qn#7	Qn#8	   37.5000	$X=0.42 $Y=1.32
Rk8	vdd!#1	vdd!	   62.5761	$X=1.42 $Y=2.33
Rk9	vdd!	vdd!#2	   62.5413	$X=0.85 $Y=2.58
Rk10	vdd!	vdd!#3	   19.0254	$X=1.03 $Y=2.755
Rk11	gnd!#1	gnd!	   38.0650	$X=1.42 $Y=1.045
Rk12	gnd!	gnd!#2	   38.0397	$X=0.86 $Y=0.83
Rk13	gnd!	gnd!#3	   15.7248	$X=1.05 $Y=0.695
Rk14	BL#1	BL	   75.2522	$X=1.42 $Y=0.145
Rk15	Q	Q#5	    0.1710	$X=1.832 $Y=1.6
Rk16	Q#5	Q#6	    0.1705	$X=1.67 $Y=1.7075
Rk17	Q#6	Q#4	    0.3938	$X=1.285 $Y=1.83
Rk18	Q#5	Q#8	    0.1874	$X=1.67 $Y=1.49
Rk19	Q#8	Q#9	   75.6200	$X=1.67 $Y=0.8
Rk20	Q#6	Q#10	   62.1730	$X=1.67 $Y=1.9625
Rk21	Q#7	Q#8	   37.5000	$X=1.67 $Y=1.32
Rl1	Q#1	Q#2	   32.8187	$X=0.545 $Y=1.948
Rl2	Q#2	Q#3	   68.5330	$X=0.545 $Y=1.6125
Rl3	Q#2	Q#4	   95.9889	$X=0.72 $Y=1.83
Rl4	Qn#1	Qn#2	   72.9973	$X=1.545 $Y=1.8355
Rl5	Qn#2	Qn#3	  103.1318	$X=1.35 $Y=1.605
Rl6	Qn#2	Qn#4	   28.3544	$X=1.545 $Y=1.5
Rl7	WL#1	WL	  119.0189	$X=1.351 $Y=0.045
Rl8	WL	WL#2	  117.2332	$X=0.735 $Y=0.045
*
*       CAPACITOR CARDS
*
*
C1	vdd!	gnd!	1.55609e-17	$X=1.04 $Y=1.664
C2	BL	gnd!	2.79481e-17	$X=1.339 $Y=0.1835
C3	BLn	gnd!	2.79481e-17	$X=0.7515 $Y=0.1835
C4	Q	gnd!	1.98368e-17	$X=1.792 $Y=1.485
C5	Qn	gnd!	8.67092e-17	$X=0.7575 $Y=1.19
C6	WL	gnd!	5.11403e-17	$X=1.0455 $Y=0.3955
C7	Qn#1	gnd!	4.41143e-17	$X=1.3555 $Y=1.554
C8	Q#1	gnd!	3.34114e-17	$X=0.6995 $Y=1.686
C9	Qn#4	gnd!	3.30257e-17	$X=1.3565 $Y=1.0985
C10	WL#1	gnd!	5.91542e-17	$X=1.2925 $Y=0.5215
C11	Q#3	gnd!	4.53475e-17	$X=0.766 $Y=1.0985
C12	WL#2	gnd!	5.90176e-17	$X=0.8005 $Y=0.5205
C13	Qn#3	gnd!	9.62432e-17	$X=1.08 $Y=1.1735
C14	Q#4	gnd!	9.60605e-17	$X=0.999 $Y=1.2825
C15	vdd!#3	gnd!	6.24771e-16	$X=1.049 $Y=0.7695
C16	Q#10	gnd!	2.82603e-17	$X=1.469 $Y=1.6535
C17	vdd!#1	gnd!	2.54686e-17	$X=1.2615 $Y=1.561
C18	Q#7	gnd!	7.7759e-17	$X=1.32 $Y=0.973
C19	Q#9	gnd!	6.19417e-17	$X=1.359 $Y=0.5995
C20	BL#1	gnd!	3.78197e-17	$X=1.268 $Y=0.504
C21	vdd!#2	gnd!	2.53753e-17	$X=0.8295 $Y=1.5655
C22	Qn#5	gnd!	4.05691e-17	$X=0.653 $Y=1.574
C23	BLn#1	gnd!	3.71119e-17	$X=0.825 $Y=0.504
C24	Qn#7	gnd!	7.66996e-17	$X=0.7755 $Y=0.9735
C25	Qn#9	gnd!	6.18172e-17	$X=0.7345 $Y=0.5995
C26	Q#2	gnd!	4.02541e-17	$X=0.7535 $Y=1.3615
C27	Qn#2	gnd!	4.23926e-17	$X=1.334 $Y=1.2865
C28	Q#5	gnd!	2.50939e-17	$X=1.5075 $Y=1.3815
C29	Q#6	gnd!	5.35713e-17	$X=1.279 $Y=1.359
*
*
.ENDS SRAMCell
*
