*
*
*
*                       LINUX           Wed Apr 28 10:05:46 2021
*
*
*
*  PROGRAM  advgen
*
*  Name           : advgen - Quantus - (64-bit)
*  Version        : 18.2.0-p078
*  Build Date     : Sun Sep 30 08:14:52 PDT 2018
*
*  HSPICE LIBRARY
*
*!LENGTH_UNITS METERS
*
*
*

*
.SUBCKT SRAMCell vdd! gnd! BL BLn WL
*
*
*  caps2d version: 10
*
*
*       TRANSISTOR CARDS
*
*
MavD2_1	gnd!#2	avC6#3	avC7#7	gnd!#3	nmos1v#20ivpcell#20gpdk045	L=9e-08
+ W=2.4e-07
+ AD=3.36e-14	AS=3.36e-14	PD=7.6e-07	PS=7.6e-07
+ scc=0.000881673 scb=0.0156102 sca=13.1081 sb=1.4e-07 sa=1.4e-07
MavD2_2	BLn#1	WL#2	avC7#9	gnd!#3	nmos1v#20ivpcell#20gpdk045	L=9e-08
+ W=1.8e-07
+ AD=2.52e-14	AS=2.52e-14	PD=6.4e-07	PS=6.4e-07
+ scc=0.000978979 scb=0.0214113 sca=17.8577 sb=1.4e-07 sa=1.4e-07
MavD2_3	avC6#7	avC7#4	gnd!#1	gnd!#3	nmos1v#20ivpcell#20gpdk045	L=9e-08
+ W=2.4e-07
+ AD=3.36e-14	AS=3.36e-14	PD=7.6e-07	PS=7.6e-07
+ scc=0.000747435 scb=0.0146151 sca=12.3415 sb=1.4e-07 sa=1.4e-07
MavD2_4	avC6#9	WL#1	BL#1	gnd!#3	nmos1v#20ivpcell#20gpdk045	L=9e-08
+ W=1.8e-07
+ AD=2.52e-14	AS=2.52e-14	PD=6.4e-07	PS=6.4e-07
+ scc=0.000844741 scb=0.0204162 sca=17.0911 sb=1.4e-07 sa=1.4e-07
MavD10_1	vdd!#2	avC6	avC7#5	vdd!#3	pmos1v#20ivpcell#20gpdk045
+ L=9e-08	W=1.2e-07
+ AD=1.68e-14	AS=1.68e-14	PD=5.2e-07	PS=5.2e-07
+ scc=0.0063131 scb=0.045131 sca=47.7483 sb=1.4e-07 sa=1.4e-07
MavD10_2	avC6#5	avC7	vdd!#1	vdd!#3	pmos1v#20ivpcell#20gpdk045
+ L=9e-08	W=1.2e-07
+ AD=1.68e-14	AS=1.68e-14	PD=5.2e-07	PS=5.2e-07
+ scc=0.00617886 scb=0.0441359 sca=46.9817 sb=1.4e-07 sa=1.4e-07
*
*
*       RESISTOR AND CAP/DIODE CARDS
*
Rk1	BLn#1	BLn	   75.2562	$X=0.67 $Y=0.145
Rk2	avC7#5	avC7#6	   62.3200	$X=0.42 $Y=1.85
Rk3	avC7#6	avC7#8	    0.1980	$X=0.42 $Y=1.485
Rk4	avC7#8	avC7#9	   75.6292	$X=0.42 $Y=0.8
Rk5	avC7#6	avC7#3	    0.3786	$X=0.785 $Y=1.605
Rk6	avC7#7	avC7#8	   37.5000	$X=0.42 $Y=1.32
Rk7	vdd!#1	vdd!	   62.5846	$X=1.42 $Y=2.33
Rk8	vdd!	vdd!#2	   62.5493	$X=0.85 $Y=2.58
Rk9	vdd!	vdd!#3	   19.0292	$X=1.03 $Y=2.755
Rk10	gnd!#1	gnd!	   38.0734	$X=1.42 $Y=1.045
Rk11	gnd!	gnd!#2	   38.0477	$X=0.86 $Y=0.83
Rk12	gnd!	gnd!#3	   15.7278	$X=1.05 $Y=0.695
Rk13	BL#1	BL	   75.2562	$X=1.42 $Y=0.145
Rk14	avC6#5	avC6#6	   62.1755	$X=1.67 $Y=1.9625
Rk15	avC6#6	avC6#4	    0.4002	$X=1.285 $Y=1.83
Rk16	avC6#6	avC6#8	    0.3425	$X=1.67 $Y=1.5975
Rk17	avC6#8	avC6#9	   75.6292	$X=1.67 $Y=0.8
Rk18	avC6#7	avC6#8	   37.5000	$X=1.67 $Y=1.32
Rl1	avC6	avC6#2	   32.8187	$X=0.545 $Y=1.948
Rl2	avC6#2	avC6#3	   68.5330	$X=0.545 $Y=1.6125
Rl3	avC6#2	avC6#4	   95.9889	$X=0.72 $Y=1.83
Rl4	avC7	avC7#2	   72.9973	$X=1.545 $Y=1.8355
Rl5	avC7#2	avC7#3	  103.1318	$X=1.35 $Y=1.605
Rl6	avC7#2	avC7#4	   28.3544	$X=1.545 $Y=1.5
Rl7	WL#1	WL	  119.0189	$X=1.351 $Y=0.045
Rl8	WL	WL#2	  117.2332	$X=0.735 $Y=0.045
*
*       CAPACITOR CARDS
*
*
C1	vdd!	gnd!	1.54528e-17	$X=1.04 $Y=1.664
C2	BL	gnd!	2.79031e-17	$X=1.339 $Y=0.1835
C3	BLn	gnd!	2.79031e-17	$X=0.7515 $Y=0.1835
C4	WL	gnd!	5.11403e-17	$X=1.0455 $Y=0.3955
C5	avC7	gnd!	4.41143e-17	$X=1.3555 $Y=1.554
C6	avC6	gnd!	3.34114e-17	$X=0.6995 $Y=1.686
C7	avC7#4	gnd!	3.29865e-17	$X=1.3565 $Y=1.0985
C8	WL#1	gnd!	5.91542e-17	$X=1.2925 $Y=0.5215
C9	avC6#3	gnd!	4.53775e-17	$X=0.766 $Y=1.0985
C10	WL#2	gnd!	5.90176e-17	$X=0.8005 $Y=0.5205
C11	avC7#3	gnd!	9.58888e-17	$X=1.08 $Y=1.1735
C12	avC6#4	gnd!	9.5545e-17	$X=0.999 $Y=1.2825
C13	vdd!#3	gnd!	5.78747e-16	$X=1.049 $Y=0.7695
C14	avC6#5	gnd!	2.80589e-17	$X=1.469 $Y=1.654
C15	vdd!#1	gnd!	2.53182e-17	$X=1.2615 $Y=1.561
C16	avC6#7	gnd!	8.81182e-17	$X=1.3075 $Y=0.975
C17	avC6#9	gnd!	6.17032e-17	$X=1.359 $Y=0.5995
C18	BL#1	gnd!	3.75237e-17	$X=1.268 $Y=0.504
C19	vdd!#2	gnd!	2.52089e-17	$X=0.8295 $Y=1.5655
C20	avC7#5	gnd!	4.06453e-17	$X=0.6535 $Y=1.572
C21	BLn#1	gnd!	3.68183e-17	$X=0.825 $Y=0.504
C22	avC7#7	gnd!	7.47164e-17	$X=0.7735 $Y=0.973
C23	avC7#9	gnd!	6.15793e-17	$X=0.7345 $Y=0.5995
C24	avC6#2	gnd!	3.96772e-17	$X=0.7535 $Y=1.3615
C25	avC7#2	gnd!	4.22141e-17	$X=1.334 $Y=1.2865
C26	avC7#6	gnd!	6.45396e-17	$X=0.714 $Y=1.247
C27	avC6#6	gnd!	6.47963e-17	$X=1.2655 $Y=1.3245
*
*
.ENDS SRAMCell
*
